/batch
/config,noeldb,1     ! force off writing results to database
*get,_wallstrt,active,,time,wall
! ANSYS input file written by Workbench version 2025 R2
! File used for geometry attach: C:\Users\alp\Desktop\ANSYS Projects\SPA-YouTube-new\SPA_1bewel_viscoelasticity_files\dp0\SYS\DM\SYS.agdb
/title,SPA_1bewel_viscoelasticity--Static Structural (A5)
! ****** Begin Custom Load Command Snippet ******
/COM, ACT Extensions:
/COM,     LSDYNA, 2025.2
/COM,     5f463412-bd3e-484b-87e7-cbc0a665e474, wbex
/COM,/COM,     ANSYSMotion, 2025.2
/COM,     20180725-3f81-49eb-9f31-41364844c769, wbex
/COM,
! ****** End   Custom Load Command Snippet ******
*DIM,_wb_ProjectScratch_dir,string,248
_wb_ProjectScratch_dir(1) = 'C:\Users\alp\Desktop\ANSYS Projects\SPA-YouTube-new\SPA_1bewel_viscoelasticity_files\dp0\SYS\MECH\'
*DIM,_wb_SolverFiles_dir,string,248
_wb_SolverFiles_dir(1) = 'C:\Users\alp\Desktop\ANSYS Projects\SPA-YouTube-new\SPA_1bewel_viscoelasticity_files\dp0\SYS\MECH\'
*DIM,_wb_userfiles_dir,string,248
_wb_userfiles_dir(1) = 'C:\Users\alp\Desktop\ANSYS Projects\SPA-YouTube-new\SPA_1bewel_viscoelasticity_files\user_files\'
/com,--- Data in consistent MKS units. See Solving Units in the help system for more information.
/units,MKS
/nopr
/wb,file,start              !  signify a WB generated input file
/prep7
! Turn off shape checking because checks already performed inside WB mesher.
! See help system for more information.
SHPP,OFF,,NOWARN
/nolist
etcon,set             ! allow ANSYS to choose best KEYOP's for 180x elements, resets any applicable keyopt to MAPDL defaults
/com,*********** Send User Defined Coordinate System(s) ***********
csys,0
/com,*********** Nodes for the whole assembly ***********
nblock,3,,3528
(1i9,3e20.9e3)
        1    -1.300000000E-01     1.100000000E-02     1.100000000E-02
        2    -1.300000000E-01     1.409905813E-02     1.055442271E-02
        3    -1.300000000E-01     1.694704899E-02     9.253788861E-03
        4    -1.300000000E-01     1.931324532E-02     7.203468073E-03
        5    -1.300000000E-01     2.100595195E-02     4.569565143E-03
        6    -1.300000000E-01     2.188803586E-02     1.565463221E-03
        7    -1.300000000E-01     2.188803586E-02    -1.565463221E-03
        8    -1.300000000E-01     2.100595195E-02    -4.569565143E-03
        9    -1.300000000E-01     1.931324532E-02    -7.203468073E-03
       10    -1.300000000E-01     1.694704899E-02    -9.253788861E-03
       11    -1.300000000E-01     1.409905813E-02    -1.055442271E-02
       12    -1.300000000E-01     1.100000000E-02    -1.100000000E-02
       13    -1.300000000E-01     7.972708844E-03    -1.057523088E-02
       14    -1.300000000E-01     5.052951008E-03    -9.253788861E-03
       15    -1.300000000E-01     2.686754682E-03    -7.203468073E-03
       16    -1.300000000E-01     9.940480511E-04    -4.569565143E-03
       17    -1.300000000E-01     1.119641393E-04    -1.565463221E-03
       18    -1.300000000E-01     1.119641393E-04     1.565463221E-03
       19    -1.300000000E-01     9.940480511E-04     4.569565143E-03
       20    -1.300000000E-01     2.686754682E-03     7.203468073E-03
! ... 3189 like lines cut
/wb,elem,start            !  set before creation of elements
/com,*********** Elements for Body 1 'Part 1' ***********
et,1,285
MAT,1 $ TYPE,1 $ REAL,1 $ SECNUM,1 $ ESYS,0
eblock,11,COMPACT,,10321
(11i9)
        1      445     2597      451     3188
        2      451     2597     2590     3188
        3      445     2631     2597     3188
        4     2590     2631     3188     2597
        5      444      451     3188      445
        6      445     2625     2631     3188
        7     2590     2631     2625     3188
        8      450     3188      451     2590
        9      444      450     3188      451
       10      444     2625      445     3188
       11      209     3188     2590     2625
       12      209     3188     2596     2590
       13      450     2596     3188     2590
       14      444     3188     2632     2625
       15      444      450     2632     3188
       16      209     3188     2632     2596
       17      209     3188     2625     2632
       18      450     2596     2632     3188
       19      245     2729     2716     3187
       20      245     2716     2731     3187
! ... 10302 like lines cut
secnum,1    ! reset the section ID to default
! Material Id = {F59DC6AC-5D9B-484D-A2C8-6121EA74030F}
/wb,elem,end               !  done creating elements
toffst,273.15,      ! Temperature offset from absolute zero
/com,*********** Set Reference Temperature ***********
tref,22.
/wb,mat,start              !  starting to send materials
/com,*********** Send Materials ***********
MP,DENS,1,1080,	! kg m^-3

TB,HYPE,1,1,2,YEOH
TBDATA,1,110000,20000,0,0

TB,PRONY,1,1,1,SHEAR
TBDATA,1,0.2,0.1
MP,UVID,1,6febc170-b11d-4098-b26d-bd136b3cc352
MP,UMID,1,7d93d0ba-9b19-49e6-904f-f1b5d0bfaf87

/wb,mat,end                !  done sending materials
!************************* Model Summary ********************
!Part 1,	Elastomer Sample (Yeoh),	matid,	1
!************************* End Model Summary ********************
! get the diagonal of the bounding box. Needed later for other things
*get,_xmin,node,,mnloc,x
*get,_ymin,node,,mnloc,y
*get,_zmin,node,,mnloc,z
*get,_xmax,node,,mxloc,x
*get,_ymax,node,,mxloc,y
*get,_zmax,node,,mxloc,z
_ASMDIAG=(_xmax-_xmin)*(_xmax-_xmin)+(_ymax-_ymin)*(_ymax-_ymin)+(_zmax-_zmin)*(_zmax-_zmin)
_ASMDIAG=SQRT(_ASMDIAG)
/wb,contact,start          !  starting to send contact
/com,*********** Create Contact "Frictionless - OuterWallsNew To OuterWallsNew" ***********
/com,            Real Constant Set For Above Contact Is 3 & 2 
*set,tid,3
*set,cid,2
r,tid
r,cid
et,tid,170
et,cid,174
MAT,2 $ TYPE,2 $ REAL,2 $ SECNUM,2 $ ESYS,0
eblock,11,COMPACT,,3086
(11i9)
    16434      109       94     1613     1613
    16435       94       95     1612     1612
    16436       79       78     1614     1614
    16437       78       93     1615     1615
    16438       95       96     1616     1616
    16439      102      103     1617     1617
    16440      107      108     1618     1618
    16441      104      105     1619     1619
    16442       97       98     1620     1620
    16443      100      101     1621     1621
    16444       98       99     1622     1622
    16445       96       97     1623     1623
    16446      101      102     1624     1624
    16447       99      100     1625     1625
    16448      103      104     1626     1626
    16449      108      109     1627     1627
    16450      106      107     1628     1628
    16451      105      106     1629     1629
    16452       89       88     1630     1630
    16453     1630       88     1631     1631
! ... 3067 like lines cut
secnum,1    ! reset the section ID to default
MAT,3 $ TYPE,3 $ REAL,2 $ SECNUM,3 $ ESYS,0
eblock,11,COMPACT,,3086
(11i9)
    19520      109       94     1613     1613
    19521       94       95     1612     1612
    19522       79       78     1614     1614
    19523       78       93     1615     1615
    19524       95       96     1616     1616
    19525      102      103     1617     1617
    19526      107      108     1618     1618
    19527      104      105     1619     1619
    19528       97       98     1620     1620
    19529      100      101     1621     1621
    19530       98       99     1622     1622
    19531       96       97     1623     1623
    19532      101      102     1624     1624
    19533       99      100     1625     1625
    19534      103      104     1626     1626
    19535      108      109     1627     1627
    19536      106      107     1628     1628
    19537      105      106     1629     1629
    19538       89       88     1630     1630
    19539     1630       88     1631     1631
! ... 3067 like lines cut
secnum,1    ! reset the section ID to default
keyo,cid,8,2               ! auto create asymmetric contact (from Program Controlled setting)
keyo,cid,10,0              ! adjust contact stiffness each NR iteration (from Program Controlled setting)
keyo,cid,12,0              ! standard contact
keyo,cid,2,0               ! augmented Lagrange (from Program Controlled setting)
keyo,cid,4,0               ! on Gauss point (from Program Controlled setting)
keyo,cid,9,0               ! use real geometry with stepped effects
keyo,cid,7,0               ! No Prediction
rmod,cid,3,1.       ! FKN
rmod,cid,5,0.       ! ICONT
rmod,cid,6,0.       ! PINB
rmod,cid,10,0.      ! CNOF
rmod,cid,12,0.      ! FKT
rmod,cid,36,67      ! WB DSID
nsel,all
esel,all
/wb,contact,end            !  done creating contacts
/com,*********** Send Named Selection as Node Component ***********
CMBLOCK,INNER1NEW,NODE,        8
(8i10)
       315      -794      1883     -2850      2913     -2946      2975     -3009
/com,*********** Send Named Selection as Node Component ***********
CMBLOCK,OUTERWALLSNEW,NODE,       12
(8i10)
         1      -320       795     -1882      2851     -2912      2947     -2974
      3010     -3038      3189     -3208
/com,*********** Send Named Selection as Node Component ***********
CMBLOCK,FIXEDSUPPORT,NODE,        4
(8i10)
       293      -320      2947     -2974
/golist
/wb,load,start             !  starting to send loads
/com,*********** Fixed Supports ***********
CMBLOCK,_FIXEDSU,NODE,        4
(8i10)
       293      -320      2947     -2974
cmsel,s,_FIXEDSU
d,all,all
nsel,all
/com,*********** Define Pressure Using Surface Effect Elements "Pressure" ***********
et,4,154
MAT,4 $ TYPE,4 $ REAL,4 $ SECNUM,4 $ ESYS,0
eblock,11,COMPACT,,3026
(11i9)
    22606      315      320     2914     2914
    22607      318      317     2913     2913
    22608      316      315     2915     2915
    22609      317      316     2916     2916
    22610      320      319     2917     2917
    22611      319      318     2918     2918
    22612      321      322     2919     2919
    22613      326      321     2920     2920
    22614      323      324     2921     2921
    22615      324      325     2922     2922
    22616      322      323     2923     2923
    22617      325      326     2924     2924
    22618      319     2918     2917     2917
    22619     2917     2918     2922     2922
    22620     2918      318     2913     2913
    22621     2918     2913     2922     2922
    22622      320     2917     2914     2914
    22623     2914     2917     2924     2924
    22624     2913      317     2916     2916
    22625     2913     2916     2921     2921
! ... 3007 like lines cut
secnum,1    ! reset the section ID to default
esel,s,type,,4
keyop,4,7,0         ! Use deformed area for application of load
esel,all
esel,all
/gst,on,on
fini
*get,_numnode,node,0,count
*get,_numelem,elem,0,count
*get, _MAXELEMNUM, elem, 0, NUM, MAX
*get, _MAXNODENUM, node, 0, NUM, MAX
*get, _MAXELEMTYPE, etyp, 0, NUM, MAX
*get, _MAXREALCONST, rcon, 0, NUM, MAX
/go
/wb,load,end               !  done creating loads
/com,--- Number of total nodes = %_numnode%
/com,--- Number of contact elements = 9198
/com,--- Number of spring elements = 0
/com,--- Number of bearing elements = 0
/com,--- Number of solid elements = 10321
/com,--- Number of condensed parts = 0
/com,--- Number of total elements = %_numelem%
*get,_wallbsol,active,,time,wall
/com,****************************************************************************
/com,*************************    SOLUTION       ********************************
/com,****************************************************************************
/solu
antype,0                   ! static analysis
nlgeom,on                  ! Turn on Large Deformation Effects
_thickRatio=  1     ! Ratio of thick parts in the model
eqsl,sparse,,,,,1
cntr,print,1               ! print out contact info and also make no initial contact an error
cncheck,dmp		!	Enable program controlled contact splitting for distributed memory parallel run
dmpoption,emat,no             ! Don't combine emat file for DANSYS
dmpoption,esav,no             ! Don't combine esav file for DANSYS
nldiag,cont,iter           ! print out contact info each equilibrium iteration
rescontrol,define,last,last,,dele	   ! Program Controlled
/com,****************************************************
/com,******************* SOLVE FOR LS 1 OF 1 ****************
esel,s,type,,4
nsle
sf,all,pres,1.
nsel,all
esel,all
acel,9.80665,0.,0.
esel,all
/nopr
/gopr
autots,on                   ! User turned on automatic time stepping
deltim,0.1,0.0001,1,OFF
time,1.
outres,erase
outres,all,none
outres,nsol,all,
outres,rsol,all
outres,eangl,all
outres,etmp,all
outres,veng,all
outres,strs,all,
outres,epel,all,
outres,eppl,all,
outres,cont,all,
! *********** WB SOLVE COMMAND ***********
! check interactive state
*get,ANSINTER_,active,,int
*if,ANSINTER_,ne,0,then
/eof
*endif
solve
/com *************** Write FE CONNECTORS ********* 
CEWRITE,file,ce,,INTE
/com,****************************************************
/com,*************** FINISHED SOLVE FOR LS 1 *************
*get,_wallasol,active,,time,wall
/nopr
*get,_numnode,node,0,count
*get,_numelem,elem,0,count
*get, _MAXELEMNUM, elem, 0, NUM, MAX
*get, _MAXNODENUM, node, 0, NUM, MAX,,,INTERNAL
*get, _MAXELEMTYPE, etyp, 0, NUM, MAX
*get, _MAXREALCONST, rcon, 0, NUM, MAX
*get,_NSOLTHREADS,active,0,ntfs
*get,_NSOLPROCESSES,active,0,npfs
/gopr
/post1
xmlo,ENCODING,ISO-8859-1
xmlo,parm
/xml,parm,xml
fini
/gopr
*get,_walldone,active,,time,wall
_preptime=(_wallbsol-_wallstrt)*3600
_solvtime=(_wallasol-_wallbsol)*3600
_posttime=(_walldone-_wallasol)*3600
_totaltim=(_walldone-_wallstrt)*3600
*get,_dlbratio,active,0,solu,dlbr
*get,_combtime,active,0,solu,comb
*get,_ssmode,active,0,solu,ssmm
*get,_ndofs,active,0,solu,ndof
*get,_sol_end_time,active,0,set,time
*if,_sol_end_time,eq,1.000000,then
/fclean				!clean distributed files
*endif
/com,--- Total number of nodes = %_numnode%
/com,--- Total number of elements = %_numelem%
/com,--- Element load balance ratio = %_dlbratio%
/com,--- Time to combine distributed files = %_combtime%
/com,--- Sparse memory mode = %_ssmode%
/com,--- Number of DOF = %_ndofs%
/wb,file,end               ! done with WB generated input
